data/rede/ESB01S4/run_ESB01S4.dss
Clear

! Compila a topologia principal
Compile (Master_20250139_ESB01S4.dss)

! Redireciona as cargas e curvas sinteticas
Redirect "CurvaCarga_Sintetica_20250139_ESB01S4.dss"
Redirect "CargasBT_Sintetico_20250139_ESB01S4.dss"
Redirect "CargasMT_Sintetico_20250139_ESB01S4.dss"

! Adiciona geradores fotovoltaicos e veiculos eletricos
Redirect ESB01S4_pv.dss
Redirect ESB01S4_evs.dss

! Configuracoes de controle
Set ControlMode=Time
Set Maxiterations=150
Set MaxControlIter=50
Batchedit RegControl..* maxtapchange=1

! Monitores da subestacao
New Monitor.Feeder_output_vi element=Vsource.SOURCE Terminal=1 mode=0
New Monitor.Feeder_output_pq element=Vsource.SOURCE Terminal=1 mode=1 ppolar=no

! Configuracao da simulacao (semanal com passos de 10m = 1008 passos)
Set mode=Daily
Set stepsize=10m
Set number=1008

Set Voltagebases=[13.8 0.38 0.22]
CalcVoltageBases

! Execucao
Solve
