data/rede/ESB01S4/CargasMT_Sintetico_20250139_ESB01S4.dss
New "Load.MT_266138434_1_M1" bus1="3870426438467670.1.2.3" phases=3 conn=Delta model=2 kv=13.800000000 kw = 14.266521 pf=0.92 status=variable vmaxpu=1.5 vminpu=0.5 daily="LS_MT_266138434_1_M1"  
New "Load.MT_266138434_1_M2" bus1="3870426438467670.1.2.3" phases=3 conn=Delta model=3 kv=13.800000000 kw = 14.266521 pf=0.92 status=variable vmaxpu=1.5 vminpu=0.5 daily="LS_MT_266138434_1_M2" 
New "Load.MT_4636591_M1" bus1="3866027338468701.1.2.3" phases=3 conn=Delta model=2 kv=13.800000000 kw = 11.8386125 pf=0.92 status=variable vmaxpu=1.5 vminpu=0.5 daily="LS_MT_4636591_M1"  
New "Load.MT_4636591_M2" bus1="3866027338468701.1.2.3" phases=3 conn=Delta model=3 kv=13.800000000 kw = 11.8386125 pf=0.92 status=variable vmaxpu=1.5 vminpu=0.5 daily="LS_MT_4636591_M2" 
New "Load.MT_214439841_M1" bus1="3865497138468996.1.2.3" phases=3 conn=Delta model=2 kv=13.800000000 kw = 28.467096 pf=0.92 status=variable vmaxpu=1.5 vminpu=0.5 daily="LS_MT_214439841_M1"  
New "Load.MT_214439841_M2" bus1="3865497138468996.1.2.3" phases=3 conn=Delta model=3 kv=13.800000000 kw = 28.467096 pf=0.92 status=variable vmaxpu=1.5 vminpu=0.5 daily="LS_MT_214439841_M2" 
New "Load.MT_224633078_1_M1" bus1="3865121138468560.1.2.3" phases=3 conn=Delta model=2 kv=13.800000000 kw = 45.220048 pf=0.92 status=variable vmaxpu=1.5 vminpu=0.5 daily="LS_MT_224633078_1_M1"  
New "Load.MT_224633078_1_M2" bus1="3865121138468560.1.2.3" phases=3 conn=Delta model=3 kv=13.800000000 kw = 45.220048 pf=0.92 status=variable vmaxpu=1.5 vminpu=0.5 daily="LS_MT_224633078_1_M2" 
New "Load.MT_194821432_M1" bus1="3860115238469472.1.2.3" phases=3 conn=Delta model=2 kv=13.800000000 kw = 45.189736 pf=0.92 status=variable vmaxpu=1.5 vminpu=0.5 daily="LS_MT_194821432_M1"  
New "Load.MT_194821432_M2" bus1="3860115238469472.1.2.3" phases=3 conn=Delta model=3 kv=13.800000000 kw = 45.189736 pf=0.92 status=variable vmaxpu=1.5 vminpu=0.5 daily="LS_MT_194821432_M2" 
New "Load.MT_198413080_1_M1" bus1="3871897438465872.1.2.3" phases=3 conn=Delta model=2 kv=13.800000000 kw = 13.5379985 pf=0.92 status=variable vmaxpu=1.5 vminpu=0.5 daily="LS_MT_198413080_1_M1"  
New "Load.MT_198413080_1_M2" bus1="3871897438465872.1.2.3" phases=3 conn=Delta model=3 kv=13.800000000 kw = 13.5379985 pf=0.92 status=variable vmaxpu=1.5 vminpu=0.5 daily="LS_MT_198413080_1_M2" 
New "Load.MT_257615017_M1" bus1="3867675138468366.1.2.3" phases=3 conn=Delta model=2 kv=13.800000000 kw = 21.249661 pf=0.92 status=variable vmaxpu=1.5 vminpu=0.5 daily="LS_MT_257615017_M1"  
New "Load.MT_257615017_M2" bus1="3867675138468366.1.2.3" phases=3 conn=Delta model=3 kv=13.800000000 kw = 21.249661 pf=0.92 status=variable vmaxpu=1.5 vminpu=0.5 daily="LS_MT_257615017_M2" 
New "Load.MT_198413080_2_M1" bus1="3871897438465872.1.2.3" phases=3 conn=Delta model=2 kv=13.800000000 kw = 0.0 pf=0.92 status=variable vmaxpu=1.5 vminpu=0.5 daily="LS_MT_198413080_2_M1"  
New "Load.MT_198413080_2_M2" bus1="3871897438465872.1.2.3" phases=3 conn=Delta model=3 kv=13.800000000 kw = 0.0 pf=0.92 status=variable vmaxpu=1.5 vminpu=0.5 daily="LS_MT_198413080_2_M2" 
New "Load.MT_85894566_M1" bus1="3857972538470976.1.2.3" phases=3 conn=Delta model=2 kv=13.800000000 kw = 245.7430325 pf=0.92 status=variable vmaxpu=1.5 vminpu=0.5 daily="LS_MT_85894566_M1"  
New "Load.MT_85894566_M2" bus1="3857972538470976.1.2.3" phases=3 conn=Delta model=3 kv=13.800000000 kw = 245.7430325 pf=0.92 status=variable vmaxpu=1.5 vminpu=0.5 daily="LS_MT_85894566_M2" 
New "Load.MT_224633078_2_M1" bus1="3865121138468560.1.2.3" phases=3 conn=Delta model=2 kv=13.800000000 kw = 49.6072815 pf=0.92 status=variable vmaxpu=1.5 vminpu=0.5 daily="LS_MT_224633078_2_M1"  
New "Load.MT_224633078_2_M2" bus1="3865121138468560.1.2.3" phases=3 conn=Delta model=3 kv=13.800000000 kw = 49.6072815 pf=0.92 status=variable vmaxpu=1.5 vminpu=0.5 daily="LS_MT_224633078_2_M2" 
New "Load.MT_198413080_3_M1" bus1="3871897438465872.1.2.3" phases=3 conn=Delta model=2 kv=13.800000000 kw = 16.7572555 pf=0.92 status=variable vmaxpu=1.5 vminpu=0.5 daily="LS_MT_198413080_3_M1"  
New "Load.MT_198413080_3_M2" bus1="3871897438465872.1.2.3" phases=3 conn=Delta model=3 kv=13.800000000 kw = 16.7572555 pf=0.92 status=variable vmaxpu=1.5 vminpu=0.5 daily="LS_MT_198413080_3_M2" 
New "Load.MT_198413080_4_M1" bus1="3871897438465872.1.2.3" phases=3 conn=Delta model=2 kv=13.800000000 kw = 0.0 pf=0.92 status=variable vmaxpu=1.5 vminpu=0.5 daily="LS_MT_198413080_4_M1"  
New "Load.MT_198413080_4_M2" bus1="3871897438465872.1.2.3" phases=3 conn=Delta model=3 kv=13.800000000 kw = 0.0 pf=0.92 status=variable vmaxpu=1.5 vminpu=0.5 daily="LS_MT_198413080_4_M2" 
New "Load.MT_1059419_M1" bus1="3858384838470850.1.2.3" phases=3 conn=Delta model=2 kv=13.800000000 kw = 446.9680475 pf=0.92 status=variable vmaxpu=1.5 vminpu=0.5 daily="LS_MT_1059419_M1"  
New "Load.MT_1059419_M2" bus1="3858384838470850.1.2.3" phases=3 conn=Delta model=3 kv=13.800000000 kw = 446.9680475 pf=0.92 status=variable vmaxpu=1.5 vminpu=0.5 daily="LS_MT_1059419_M2" 
New "Load.MT_191624435_M1" bus1="3875945738462983.1.2.3" phases=3 conn=Delta model=2 kv=13.800000000 kw = 3.585267 pf=0.92 status=variable vmaxpu=1.5 vminpu=0.5 daily="LS_MT_191624435_M1"  
New "Load.MT_191624435_M2" bus1="3875945738462983.1.2.3" phases=3 conn=Delta model=3 kv=13.800000000 kw = 3.585267 pf=0.92 status=variable vmaxpu=1.5 vminpu=0.5 daily="LS_MT_191624435_M2" 
New "Load.MT_258104247_1_M1" bus1="3864919738468224.1.2.3" phases=3 conn=Delta model=2 kv=13.800000000 kw = 276.309693 pf=0.92 status=variable vmaxpu=1.5 vminpu=0.5 daily="LS_MT_258104247_1_M1"  
New "Load.MT_258104247_1_M2" bus1="3864919738468224.1.2.3" phases=3 conn=Delta model=3 kv=13.800000000 kw = 276.309693 pf=0.92 status=variable vmaxpu=1.5 vminpu=0.5 daily="LS_MT_258104247_1_M2" 
New "Load.MT_191624069_M1" bus1="3875533638463188.1.2.3" phases=3 conn=Delta model=2 kv=13.800000000 kw = 21.620746 pf=0.92 status=variable vmaxpu=1.5 vminpu=0.5 daily="LS_MT_191624069_M1"  
New "Load.MT_191624069_M2" bus1="3875533638463188.1.2.3" phases=3 conn=Delta model=3 kv=13.800000000 kw = 21.620746 pf=0.92 status=variable vmaxpu=1.5 vminpu=0.5 daily="LS_MT_191624069_M2" 
New "Load.MT_198413080_5_M1" bus1="3871897438465872.1.2.3" phases=3 conn=Delta model=2 kv=13.800000000 kw = 43.951613 pf=0.92 status=variable vmaxpu=1.5 vminpu=0.5 daily="LS_MT_198413080_5_M1"  
New "Load.MT_198413080_5_M2" bus1="3871897438465872.1.2.3" phases=3 conn=Delta model=3 kv=13.800000000 kw = 43.951613 pf=0.92 status=variable vmaxpu=1.5 vminpu=0.5 daily="LS_MT_198413080_5_M2" 
New "Load.MT_198413080_6_M1" bus1="3871897438465872.1.2.3" phases=3 conn=Delta model=2 kv=13.800000000 kw = 67.022038 pf=0.92 status=variable vmaxpu=1.5 vminpu=0.5 daily="LS_MT_198413080_6_M1"  
New "Load.MT_198413080_6_M2" bus1="3871897438465872.1.2.3" phases=3 conn=Delta model=3 kv=13.800000000 kw = 67.022038 pf=0.92 status=variable vmaxpu=1.5 vminpu=0.5 daily="LS_MT_198413080_6_M2" 
New "Load.MT_266138434_2_M1" bus1="3870426438467670.1.2.3" phases=3 conn=Delta model=2 kv=13.800000000 kw = 0.0 pf=0.92 status=variable vmaxpu=1.5 vminpu=0.5 daily="LS_MT_266138434_2_M1"  
New "Load.MT_266138434_2_M2" bus1="3870426438467670.1.2.3" phases=3 conn=Delta model=3 kv=13.800000000 kw = 0.0 pf=0.92 status=variable vmaxpu=1.5 vminpu=0.5 daily="LS_MT_266138434_2_M2" 
New "Load.MT_4636467_M1" bus1="3873819538464264.1.2.3" phases=3 conn=Delta model=2 kv=13.800000000 kw = 18.4856785 pf=0.92 status=variable vmaxpu=1.5 vminpu=0.5 daily="LS_MT_4636467_M1"  
New "Load.MT_4636467_M2" bus1="3873819538464264.1.2.3" phases=3 conn=Delta model=3 kv=13.800000000 kw = 18.4856785 pf=0.92 status=variable vmaxpu=1.5 vminpu=0.5 daily="LS_MT_4636467_M2" 
New "Load.MT_198413080_7_M1" bus1="3871897438465872.1.2.3" phases=3 conn=Delta model=2 kv=13.800000000 kw = 26.1783145 pf=0.92 status=variable vmaxpu=1.5 vminpu=0.5 daily="LS_MT_198413080_7_M1"  
New "Load.MT_198413080_7_M2" bus1="3871897438465872.1.2.3" phases=3 conn=Delta model=3 kv=13.800000000 kw = 26.1783145 pf=0.92 status=variable vmaxpu=1.5 vminpu=0.5 daily="LS_MT_198413080_7_M2" 
New "Load.MT_258104247_2_M1" bus1="3864919738468224.1.2.3" phases=3 conn=Delta model=2 kv=13.800000000 kw = 56.821338 pf=0.92 status=variable vmaxpu=1.5 vminpu=0.5 daily="LS_MT_258104247_2_M1"  
New "Load.MT_258104247_2_M2" bus1="3864919738468224.1.2.3" phases=3 conn=Delta model=3 kv=13.800000000 kw = 56.821338 pf=0.92 status=variable vmaxpu=1.5 vminpu=0.5 daily="LS_MT_258104247_2_M2" 
New "Load.MT_266138434_3_M1" bus1="3870426438467670.1.2.3" phases=3 conn=Delta model=2 kv=13.800000000 kw = 68.730939 pf=0.92 status=variable vmaxpu=1.5 vminpu=0.5 daily="LS_MT_266138434_3_M1"  
New "Load.MT_266138434_3_M2" bus1="3870426438467670.1.2.3" phases=3 conn=Delta model=3 kv=13.800000000 kw = 68.730939 pf=0.92 status=variable vmaxpu=1.5 vminpu=0.5 daily="LS_MT_266138434_3_M2" 

New "Load.MT_4648977_M1" bus1="3862719638465859.1.2.3" phases=3 conn=Delta model=2 kv=13.800000000 kw = 0.4357885 pf=0.92 status=variable vmaxpu=1.5 vminpu=0.5 daily="LS_MT_4648977_M1"  
New "Load.MT_4648977_M2" bus1="3862719638465859.1.2.3" phases=3 conn=Delta model=3 kv=13.800000000 kw = 0.4357885 pf=0.92 status=variable vmaxpu=1.5 vminpu=0.5 daily="LS_MT_4648977_M2" 
New "Load.MT_222273078_M1" bus1="3858817338467040.1.2.3" phases=3 conn=Delta model=2 kv=13.800000000 kw = 24.923095 pf=0.92 status=variable vmaxpu=1.5 vminpu=0.5 daily="LS_MT_222273078_M1"  
New "Load.MT_222273078_M2" bus1="3858817338467040.1.2.3" phases=3 conn=Delta model=3 kv=13.800000000 kw = 24.923095 pf=0.92 status=variable vmaxpu=1.5 vminpu=0.5 daily="LS_MT_222273078_M2" 
New "Load.MT_198413080_8_M1" bus1="3871897438465872.1.2.3" phases=3 conn=Delta model=2 kv=13.800000000 kw = 225.6800555 pf=0.92 status=variable vmaxpu=1.5 vminpu=0.5 daily="LS_MT_198413080_8_M1"  
New "Load.MT_198413080_8_M2" bus1="3871897438465872.1.2.3" phases=3 conn=Delta model=3 kv=13.800000000 kw = 225.6800555 pf=0.92 status=variable vmaxpu=1.5 vminpu=0.5 daily="LS_MT_198413080_8_M2" 
