data/rede/ESB01S4/ESB01S4_evs.dss
! Alocação estocástica de 50 VEs monofásicos BT (Seed: 42)
New Load.EV_AsO2-1_semana_4_7p2kW_1 Bus1=3876811438461514.3.4 Phases=1 Conn=Wye kV=0.220 kW=7.2 pf=1.0 status=variable
New Load.EV_SR14-1_semana_1_3p6kW_2 Bus1=3860492038466710.1.4 Phases=1 Conn=Wye kV=0.220 kW=3.6 pf=1.0 status=variable
New Load.EV_Bl2-1_semana_3_7p2kW_3 Bus1=3860389438461006.2.4 Phases=1 Conn=Wye kV=0.220 kW=7.2 pf=1.0 status=variable
New Load.EV_UT1-2_semana_3_7p2kW_4 Bus1=3871326638465758.3.4 Phases=1 Conn=Wye kV=0.220 kW=7.2 pf=1.0 status=variable
New Load.EV_Share-29_semana_1_3p6kW_5 Bus1=3863388038458087.1.4 Phases=1 Conn=Wye kV=0.220 kW=3.6 pf=1.0 status=variable
New Load.EV_AsO10-5_semana_1_7p2kW_6 Bus1=3858565438467125.1.4 Phases=1 Conn=Wye kV=0.220 kW=7.2 pf=1.0 status=variable
New Load.EV_Share-7_semana_1_3p6kW_7 Bus1=3862124538458846.1.4 Phases=1 Conn=Wye kV=0.220 kW=3.6 pf=1.0 status=variable
New Load.EV_Bl2-5_semana_2_7p2kW_8 Bus1=3872880438464885.2.4 Phases=1 Conn=Wye kV=0.220 kW=7.2 pf=1.0 status=variable
New Load.EV_Bl2-6_semana_4_3p6kW_9 Bus1=3860313638465320.1.4 Phases=1 Conn=Wye kV=0.220 kW=3.6 pf=1.0 status=variable
New Load.EV_AdO1-1_semana_2_7p2kW_10 Bus1=3863067138457505.2.4 Phases=1 Conn=Wye kV=0.220 kW=7.2 pf=1.0 status=variable
New Load.EV_Share-29_semana_1_3p6kW_11 Bus1=3879980138459878.2.4 Phases=1 Conn=Wye kV=0.220 kW=3.6 pf=1.0 status=variable
New Load.EV_Bl2-2_semana_3_7p2kW_12 Bus1=3881437138456159.1.4 Phases=1 Conn=Wye kV=0.220 kW=7.2 pf=1.0 status=variable
New Load.EV_AsO2-1_semana_2_3p6kW_13 Bus1=3857305038467962.2.4 Phases=1 Conn=Wye kV=0.220 kW=3.6 pf=1.0 status=variable
New Load.EV_AsO10-5_semana_2_7p2kW_14 Bus1=154652959tr.2.4 Phases=1 Conn=Wye kV=0.220 kW=7.2 pf=1.0 status=variable
New Load.EV_MS22-1_semana_2_7p2kW_15 Bus1=2296520tr.3.4 Phases=1 Conn=Wye kV=0.220 kW=7.2 pf=1.0 status=variable
New Load.EV_UT1-2_semana_1_3p6kW_16 Bus1=3863274438458552.2.4 Phases=1 Conn=Wye kV=0.220 kW=3.6 pf=1.0 status=variable
New Load.EV_AsO10-3_semana_1_3p6kW_17 Bus1=32272140tr.2.4 Phases=1 Conn=Wye kV=0.220 kW=3.6 pf=1.0 status=variable
New Load.EV_Share-15_semana_2_7p2kW_18 Bus1=3861810938460739.1.4 Phases=1 Conn=Wye kV=0.220 kW=7.2 pf=1.0 status=variable
New Load.EV_AdO3-3_semana_3_7p2kW_19 Bus1=3872583838465063.3.4 Phases=1 Conn=Wye kV=0.220 kW=7.2 pf=1.0 status=variable
New Load.EV_SR14-2_semana_1_3p6kW_20 Bus1=3867020038468733.2.4 Phases=1 Conn=Wye kV=0.220 kW=3.6 pf=1.0 status=variable
New Load.EV_AsO2-1_semana_1_7p2kW_21 Bus1=3860191938464242.1.4 Phases=1 Conn=Wye kV=0.220 kW=7.2 pf=1.0 status=variable
New Load.EV_Share-36_semana_4_3p6kW_22 Bus1=3858348938468152.3.4 Phases=1 Conn=Wye kV=0.220 kW=3.6 pf=1.0 status=variable
New Load.EV_Bl2-3_semana_1_7p2kW_23 Bus1=3877583038462377.1.4 Phases=1 Conn=Wye kV=0.220 kW=7.2 pf=1.0 status=variable
New Load.EV_Bl2-6_semana_1_7p2kW_24 Bus1=3858294638465773.2.4 Phases=1 Conn=Wye kV=0.220 kW=7.2 pf=1.0 status=variable
New Load.EV_AdO3-3_semana_4_3p6kW_25 Bus1=3858576538463952.3.4 Phases=1 Conn=Wye kV=0.220 kW=3.6 pf=1.0 status=variable
New Load.EV_Bl2-3_semana_3_7p2kW_26 Bus1=3857715138467225.3.4 Phases=1 Conn=Wye kV=0.220 kW=7.2 pf=1.0 status=variable
New Load.EV_Bl2-8_semana_2_7p2kW_27 Bus1=3858995138460055.2.4 Phases=1 Conn=Wye kV=0.220 kW=7.2 pf=1.0 status=variable
New Load.EV_Share-20_semana_2_3p6kW_28 Bus1=3869277138467823.3.4 Phases=1 Conn=Wye kV=0.220 kW=3.6 pf=1.0 status=variable
New Load.EV_SR2-3_semana_2_3p6kW_29 Bus1=3881779938457109.1.4 Phases=1 Conn=Wye kV=0.220 kW=3.6 pf=1.0 status=variable
New Load.EV_Bl2-7_semana_2_7p2kW_30 Bus1=3863388038458087.1.4 Phases=1 Conn=Wye kV=0.220 kW=7.2 pf=1.0 status=variable
New Load.EV_Share-25_semana_2_7p2kW_31 Bus1=3872445438465395.3.4 Phases=1 Conn=Wye kV=0.220 kW=7.2 pf=1.0 status=variable
New Load.EV_Bl2-6_semana_2_3p6kW_32 Bus1=3880418738457410.3.4 Phases=1 Conn=Wye kV=0.220 kW=3.6 pf=1.0 status=variable
New Load.EV_Bl2-6_semana_2_3p6kW_33 Bus1=3857795638465802.1.4 Phases=1 Conn=Wye kV=0.220 kW=3.6 pf=1.0 status=variable
New Load.EV_Share-25_semana_1_3p6kW_34 Bus1=3859348338461768.2.4 Phases=1 Conn=Wye kV=0.220 kW=3.6 pf=1.0 status=variable
New Load.EV_Bl2-1_semana_4_7p2kW_35 Bus1=3881018338455769.3.4 Phases=1 Conn=Wye kV=0.220 kW=7.2 pf=1.0 status=variable
New Load.EV_Bl7-1_semana_1_3p6kW_36 Bus1=3857976138463418.2.4 Phases=1 Conn=Wye kV=0.220 kW=3.6 pf=1.0 status=variable
New Load.EV_Share-30_semana_1_7p2kW_37 Bus1=3882024738455537.2.4 Phases=1 Conn=Wye kV=0.220 kW=7.2 pf=1.0 status=variable
New Load.EV_Share-15_semana_2_7p2kW_38 Bus1=3871790538465694.1.4 Phases=1 Conn=Wye kV=0.220 kW=7.2 pf=1.0 status=variable
New Load.EV_Share-7_semana_2_3p6kW_39 Bus1=3858294638465773.1.4 Phases=1 Conn=Wye kV=0.220 kW=3.6 pf=1.0 status=variable
New Load.EV_AdO3-2_semana_2_3p6kW_40 Bus1=3859850238467512.1.4 Phases=1 Conn=Wye kV=0.220 kW=3.6 pf=1.0 status=variable
New Load.EV_Bl2-2_semana_4_7p2kW_41 Bus1=3858549438474969.2.4 Phases=1 Conn=Wye kV=0.220 kW=7.2 pf=1.0 status=variable
New Load.EV_AdO3-3_semana_2_3p6kW_42 Bus1=3861083638472447.2.4 Phases=1 Conn=Wye kV=0.220 kW=3.6 pf=1.0 status=variable
New Load.EV_Share-3_semana_3_7p2kW_43 Bus1=3859285038475481.2.4 Phases=1 Conn=Wye kV=0.220 kW=7.2 pf=1.0 status=variable
New Load.EV_UT15-2_semana_2_7p2kW_44 Bus1=3857094038463534.3.4 Phases=1 Conn=Wye kV=0.220 kW=7.2 pf=1.0 status=variable
New Load.EV_AsO6-1_semana_1_3p6kW_45 Bus1=3858495738470286.2.4 Phases=1 Conn=Wye kV=0.220 kW=3.6 pf=1.0 status=variable
New Load.EV_Share-12_semana_2_3p6kW_46 Bus1=3860569938475554.2.4 Phases=1 Conn=Wye kV=0.220 kW=3.6 pf=1.0 status=variable
New Load.EV_Share-30_semana_3_3p6kW_47 Bus1=3872197938466099.2.4 Phases=1 Conn=Wye kV=0.220 kW=3.6 pf=1.0 status=variable
New Load.EV_AdO1-1_semana_1_7p2kW_48 Bus1=3865107138469286.2.4 Phases=1 Conn=Wye kV=0.220 kW=7.2 pf=1.0 status=variable
New Load.EV_Share-6_semana_2_3p6kW_49 Bus1=3856132438462774.2.4 Phases=1 Conn=Wye kV=0.220 kW=3.6 pf=1.0 status=variable
New Load.EV_Share-7_semana_1_7p2kW_50 Bus1=3881427138456103.1.4 Phases=1 Conn=Wye kV=0.220 kW=7.2 pf=1.0 status=variable
